data_1thiophene
_audit_creation_date              2019-12-23
_audit_creation_method            'tobacco_3.0'
_symmetry_space_group_name_H-M    'P1'
_symmetry_Int_Tables_number       1
_symmetry_cell_setting            triclinic
loop_
_symmetry_equiv_pos_as_xyz
x,y,z
_cell_length_a                    40.0
_cell_length_b                    40.0
_cell_length_c                    40.0
_cell_angle_alpha                 90.0
_cell_angle_beta                 90.0
_cell_angle_gamma                 90.0
loop_
_atom_site_label
_atom_site_type_symbol
_atom_site_fract_x
_atom_site_fract_y
_atom_site_fract_z
_atom_site_U_iso_or_equiv
_atom_site_adp_type
_atom_site_occupancy
_atom_site_charge
C1        C   0.51972     0.48231     0.50009   0.00000  Uiso   1.00      0.00000
C2        C   0.51961     0.51794     0.50009   0.00000  Uiso   1.00      0.00000
X3        C   0.48763     0.53075     0.49993   0.00000  Uiso   1.00      0.00000
S4        S   0.45795     0.49993     0.4998   0.00000  Uiso   1.00      0.00000
X5        C   0.48783     0.4693     0.49992   0.00000  Uiso   1.00      0.00000
H6        H   0.54205     0.46699     0.5002   0.00000  Uiso   1.00      0.00000
H7        H   0.54183     0.5334     0.50019   0.00000  Uiso   1.00      0.00000
loop_
_geom_bond_atom_site_label_1
_geom_bond_atom_site_label_2
_geom_bond_distance
_geom_bond_site_symmetry_2
_ccdc_geom_bond_type
C1    C2    1.4252067920130014    .    A
C1    X5    1.377685653550909    .    A
C1   H6   1.083212555318672    .     S
C2    X3    1.3780229896485814    .    A
C2   H7   1.0827742146911337    .     S
X3    S4    1.7115100700843164    .    A
S4    X5    1.7116194436848378    .    A
