data_2B_1O_Ch
_audit_creation_date              2019-12-23
_audit_creation_method            'tobacco_3.0'
_symmetry_space_group_name_H-M    'P1'
_symmetry_Int_Tables_number       1
_symmetry_cell_setting            triclinic
loop_
_symmetry_equiv_pos_as_xyz
x,y,z
_cell_length_a                    40.0
_cell_length_b                    40.0
_cell_length_c                    40.0
_cell_angle_alpha                 90.0
_cell_angle_beta                 90.0
_cell_angle_gamma                 90.0
loop_
_atom_site_label
_atom_site_type_symbol
_atom_site_fract_x
_atom_site_fract_y
_atom_site_fract_z
_atom_site_U_iso_or_equiv
_atom_site_adp_type
_atom_site_occupancy
_atom_site_charge
X1        C   0.58854     0.51798     0.50665   0.00000  Uiso   1.00      0.00000
C2        C   0.56993     0.49442     0.48892   0.00000  Uiso   1.00      0.00000
C3        C   0.53553     0.49877     0.4848   0.00000  Uiso   1.00      0.00000
C4        C   0.51949     0.52607     0.49959   0.00000  Uiso   1.00      0.00000
O5        O   0.4858     0.53251     0.49709   0.00000  Uiso   1.00      0.00000
C6        C   0.463     0.50673     0.4973   0.00000  Uiso   1.00      0.00000
C7        C   0.46724     0.47647     0.51421   0.00000  Uiso   1.00      0.00000
C8        C   0.44246     0.45193     0.51251   0.00000  Uiso   1.00      0.00000
X9        C   0.4129     0.45801     0.49511   0.00000  Uiso   1.00      0.00000
C10        C   0.40795     0.48878     0.47951   0.00000  Uiso   1.00      0.00000
C11        C   0.43297     0.51309     0.48065   0.00000  Uiso   1.00      0.00000
C12        C   0.53836     0.55004     0.51655   0.00000  Uiso   1.00      0.00000
C13        C   0.57282     0.546     0.52015   0.00000  Uiso   1.00      0.00000
H15        H   0.58223     0.4727     0.47816   0.00000  Uiso   1.00      0.00000
H16        H   0.52158     0.48062     0.47022   0.00000  Uiso   1.00      0.00000
H17        H   0.48969     0.47149     0.52864   0.00000  Uiso   1.00      0.00000
H18        H   0.44621     0.42805     0.52504   0.00000  Uiso   1.00      0.00000
H20        H   0.38465     0.49386     0.46653   0.00000  Uiso   1.00      0.00000
H21        H   0.42903     0.53706     0.46851   0.00000  Uiso   1.00      0.00000
H22        H   0.52614     0.57195     0.52701   0.00000  Uiso   1.00      0.00000
H23        H   0.58736     0.56468     0.53347   0.00000  Uiso   1.00      0.00000
loop_
_geom_bond_atom_site_label_1
_geom_bond_atom_site_label_2
_geom_bond_distance
_geom_bond_site_symmetry_2
_ccdc_geom_bond_type
X1    C2    1.3947092026655594    .    A
X1    C13    1.3939806598371451    .    A
C2    C3    1.3967143730913687    .    A
C2   H15   1.0872541561199032    .     S
C3    C4    1.397893100347803    .    A
C3   H16   1.0856160647300677    .     S
C4   O5   1.3756393131922342    .     S
C4    C12    1.3961543754184182    .    A
O5   C6   1.3766582727750538    .     S
C6   C11   1.3968381438090833    .     S
C6   C7   1.3969070405721336    .     S
C7   C8   1.3966531423370652    .     S
C7   H17   1.0859302371699622    .     S
C8   H18   1.0890860755697838    .     S
C8   X9   1.3934245584171392    .     S
X9   C10   1.3940762676410527    .     S
C10   H20   1.0860399992633796    .     S
C10   C11   1.3961524845087674    .     S
C11   H21   1.086251609895235    .     S
C12   H22   1.0872262689983152    .     S
C12    C13    1.395291052074802    .    A
C13   H23   1.0864815875108007    .     S
