data_L1
_audit_creation_date              2019-12-23
_audit_creation_method            'tobacco_3.0'
_symmetry_space_group_name_H-M    'P1'
_symmetry_Int_Tables_number       1
_symmetry_cell_setting            triclinic
loop_
_symmetry_equiv_pos_as_xyz
x,y,z
_cell_length_a                    40.0
_cell_length_b                    40.0
_cell_length_c                    40.0
_cell_angle_alpha                 90.0
_cell_angle_beta                 90.0
_cell_angle_gamma                 90.0
loop_
_atom_site_label
_atom_site_type_symbol
_atom_site_fract_x
_atom_site_fract_y
_atom_site_fract_z
_atom_site_U_iso_or_equiv
_atom_site_adp_type
_atom_site_occupancy
_atom_site_charge
C1        C   0.56086     0.48257     0.49988   0.00000  Uiso   1.00      0.00000
C2        C   0.56087     0.51737     0.50003   0.00000  Uiso   1.00      0.00000
X3        C   0.53065     0.53482     0.50028   0.00000  Uiso   1.00      0.00000
C4        C   0.50002     0.51767     0.50023   0.00000  Uiso   1.00      0.00000
C5        C   0.46941     0.53486     0.50009   0.00000  Uiso   1.00      0.00000
C6        C   0.43917     0.51744     0.49987   0.00000  Uiso   1.00      0.00000
C7        C   0.43914     0.48265     0.49999   0.00000  Uiso   1.00      0.00000
X8        C   0.46935     0.46518     0.50022   0.00000  Uiso   1.00      0.00000
C9        C   0.5     0.48232     0.50023   0.00000  Uiso   1.00      0.00000
C10        C   0.53063     0.46514     0.50009   0.00000  Uiso   1.00      0.00000
H11        H   0.58437     0.46897     0.49959   0.00000  Uiso   1.00      0.00000
H12        H   0.58439     0.53098     0.4999   0.00000  Uiso   1.00      0.00000
H14        H   0.46893     0.56204     0.50002   0.00000  Uiso   1.00      0.00000
H15        H   0.41567     0.53108     0.49957   0.00000  Uiso   1.00      0.00000
H16        H   0.41561     0.46906     0.49984   0.00000  Uiso   1.00      0.00000
H18        H   0.53112     0.43796     0.50003   0.00000  Uiso   1.00      0.00000
loop_
_geom_bond_atom_site_label_1
_geom_bond_atom_site_label_2
_geom_bond_distance
_geom_bond_site_symmetry_2
_ccdc_geom_bond_type
C1    C10    1.3958234272285277    .    A
C1   H11   1.0864726043485857    .     S
C1    C2    1.3920129884451504    .    A
C2    X3    1.3958873306968598    .    A
C2   H12   1.0869696591901719    .     S
X3    C4    1.4041777095510393    .    A
C4    C5    1.4042722243212002    .    A
C4    C9    1.4140002263083284    .    A
C5    C6    1.3959727217965192    .    A
C5   H14   1.0873731282315184    .     S
C6   H15   1.0869330062151987    .     S
C6    C7    1.391608795603129    .    A
C7   H16   1.0869196842453455    .     S
C7    X8    1.395935757834153    .    A
X8    C9    1.4046791519774182    .    A
C9    C10    1.4047740885993016    .    A
C10   H18   1.0873793082452834    .     S
