data_L1
_audit_creation_date              2019-12-23
_audit_creation_method            'tobacco_3.0'
_symmetry_space_group_name_H-M    'P1'
_symmetry_Int_Tables_number       1
_symmetry_cell_setting            triclinic
loop_
_symmetry_equiv_pos_as_xyz
x,y,z
_cell_length_a                    40.0
_cell_length_b                    40.0
_cell_length_c                    40.0
_cell_angle_alpha                 90.0
_cell_angle_beta                 90.0
_cell_angle_gamma                 90.0
loop_
_atom_site_label
_atom_site_type_symbol
_atom_site_fract_x
_atom_site_fract_y
_atom_site_fract_z
_atom_site_U_iso_or_equiv
_atom_site_adp_type
_atom_site_occupancy
_atom_site_charge
X1        C   0.592     0.48352     0.53972   0.00000  Uiso   1.00      0.00000
C2        C   0.57444     0.50053     0.56454   0.00000  Uiso   1.00      0.00000
C3        C   0.54063     0.50819     0.5601   0.00000  Uiso   1.00      0.00000
C4        C   0.52396     0.49902     0.53058   0.00000  Uiso   1.00      0.00000
C5        C   0.48635     0.50562     0.52661   0.00000  Uiso   1.00      0.00000
C6        C   0.47944     0.52845     0.49643   0.00000  Uiso   1.00      0.00000
C7        C   0.47416     0.51527     0.46425   0.00000  Uiso   1.00      0.00000
C8        C   0.46792     0.53618     0.43706   0.00000  Uiso   1.00      0.00000
X9        C   0.46694     0.57066     0.44154   0.00000  Uiso   1.00      0.00000
C10        C   0.47244     0.58423     0.47312   0.00000  Uiso   1.00      0.00000
C11        C   0.47872     0.56329     0.50044   0.00000  Uiso   1.00      0.00000
C12        C   0.46406     0.47411     0.52736   0.00000  Uiso   1.00      0.00000
C13        C   0.47687     0.44168     0.53184   0.00000  Uiso   1.00      0.00000
C14        C   0.45619     0.41363     0.52988   0.00000  Uiso   1.00      0.00000
X15        C   0.42209     0.41742     0.52427   0.00000  Uiso   1.00      0.00000
C16        C   0.40853     0.44934     0.52134   0.00000  Uiso   1.00      0.00000
C17        C   0.42924     0.4774     0.52316   0.00000  Uiso   1.00      0.00000
C18        C   0.54236     0.48256     0.50551   0.00000  Uiso   1.00      0.00000
C19        C   0.57599     0.47458     0.51017   0.00000  Uiso   1.00      0.00000
H21        H   0.58706     0.50761     0.58755   0.00000  Uiso   1.00      0.00000
H22        H   0.52739     0.52112     0.58002   0.00000  Uiso   1.00      0.00000
H23        H   0.47836     0.51968     0.54892   0.00000  Uiso   1.00      0.00000
H24        H   0.47464     0.48839     0.46018   0.00000  Uiso   1.00      0.00000
H25        H   0.4638     0.52542     0.41245   0.00000  Uiso   1.00      0.00000
H27        H   0.47182     0.6112     0.47656   0.00000  Uiso   1.00      0.00000
H28        H   0.48309     0.5745     0.52483   0.00000  Uiso   1.00      0.00000
H29        H   0.50331     0.43745     0.53652   0.00000  Uiso   1.00      0.00000
H30        H   0.46691     0.3888     0.53252   0.00000  Uiso   1.00      0.00000
H32        H   0.38185     0.45242     0.51724   0.00000  Uiso   1.00      0.00000
H33        H   0.41804     0.50206     0.52041   0.00000  Uiso   1.00      0.00000
H34        H   0.53026     0.47484     0.48242   0.00000  Uiso   1.00      0.00000
H35        H   0.58948     0.46116     0.49079   0.00000  Uiso   1.00      0.00000
loop_
_geom_bond_atom_site_label_1
_geom_bond_atom_site_label_2
_geom_bond_distance
_geom_bond_site_symmetry_2
_ccdc_geom_bond_type
X1    C2    1.3935428805745447    .    A
X1    C19    1.391083721420105    .    A
C2    C3    1.3980016022880617    .    A
C2   H21   1.0872724773487117    .     S
C3    C4    1.4047964692438566    .    A
C3   H22   1.0875947039223743    .     S
C4   C5   1.5356213074843648    .     S
C4    C18    1.4074069773878495    .    A
C5   C12   1.5441692653333112    .     S
C5   C6   1.5387212353119721    .     S
C5   H23   1.1021867718313454    .     S
C6    C7    1.406921859948162    .    A
C6    C11    1.4030960622851163    .    A
C7   H24   1.0876247146879325    .     S
C7    C8    1.3945389489003168    .    A
C8    X9    1.391345363308479    .    A
C8   H25   1.0869436783936879    .     S
X9    C10    1.3923742600321198    .    A
C10   H27   1.087822706142873    .     S
C10    C11    1.3996024578429442    .    A
C11   H28   1.0878478570094272    .     S
C12    C17    1.4090544347185476    .    A
C12    C13    1.406198506612772    .    A
C13    C14    1.3961699037008382    .    A
C13   H29   1.0872857214182483    .     S
C14   H30   1.0869530992641794    .     S
C14    X15    1.3906235723588154    .    A
X15    C16    1.392175218857168    .    A
C16   H32   1.0867336748256213    .     S
C16    C17    1.3968994809935305    .    A
C17   H33   1.0889393738863489    .     S
C18   H34   1.087497310341502    .     S
C18    C19    1.3950615183568094    .    A
C19   H35   1.086396539022473    .     S
