data_L1
_audit_creation_date              2019-12-23
_audit_creation_method            'tobacco_3.0'
_symmetry_space_group_name_H-M    'P1'
_symmetry_Int_Tables_number       1
_symmetry_cell_setting            triclinic
loop_
_symmetry_equiv_pos_as_xyz
x,y,z
_cell_length_a                    40.0
_cell_length_b                    40.0
_cell_length_c                    40.0
_cell_angle_alpha                 90.0
_cell_angle_beta                 90.0
_cell_angle_gamma                 90.0
loop_
_atom_site_label
_atom_site_type_symbol
_atom_site_fract_x
_atom_site_fract_y
_atom_site_fract_z
_atom_site_U_iso_or_equiv
_atom_site_adp_type
_atom_site_occupancy
_atom_site_charge
X1        C   0.59051     0.47267     0.50674   0.00000  Uiso   1.00      0.00000
C2        C   0.56808     0.45245     0.52401   0.00000  Uiso   1.00      0.00000
C3        C   0.53375     0.45885     0.52223   0.00000  Uiso   1.00      0.00000
C4        C   0.5211     0.48527     0.50259   0.00000  Uiso   1.00      0.00000
N5        N   0.48533     0.49121     0.50022   0.00000  Uiso   1.00      0.00000
C6        C   0.47241     0.52502     0.49717   0.00000  Uiso   1.00      0.00000
C7        C   0.44378     0.53196     0.47784   0.00000  Uiso   1.00      0.00000
C8        C   0.43065     0.56426     0.47559   0.00000  Uiso   1.00      0.00000
X9        C   0.44646     0.59062     0.49185   0.00000  Uiso   1.00      0.00000
C10        C   0.47519     0.5846     0.51057   0.00000  Uiso   1.00      0.00000
C11        C   0.48779     0.5521     0.51353   0.00000  Uiso   1.00      0.00000
C12        C   0.46233     0.46313     0.49908   0.00000  Uiso   1.00      0.00000
C13        C   0.43051     0.46498     0.51408   0.00000  Uiso   1.00      0.00000
C14        C   0.40752     0.43882     0.51119   0.00000  Uiso   1.00      0.00000
X15        C   0.41625     0.40978     0.49413   0.00000  Uiso   1.00      0.00000
C16        C   0.44791     0.4069     0.47996   0.00000  Uiso   1.00      0.00000
C17        C   0.47063     0.43339     0.4822   0.00000  Uiso   1.00      0.00000
C18        C   0.54427     0.50518     0.48514   0.00000  Uiso   1.00      0.00000
C19        C   0.57864     0.49911     0.48747   0.00000  Uiso   1.00      0.00000
H21        H   0.57724     0.43169     0.53896   0.00000  Uiso   1.00      0.00000
H22        H   0.51686     0.44299     0.53645   0.00000  Uiso   1.00      0.00000
H23        H   0.43126     0.51208     0.46417   0.00000  Uiso   1.00      0.00000
H24        H   0.40813     0.56869     0.46104   0.00000  Uiso   1.00      0.00000
H26        H   0.48773     0.60519     0.52312   0.00000  Uiso   1.00      0.00000
H27        H   0.50973     0.54814     0.52906   0.00000  Uiso   1.00      0.00000
H28        H   0.4232     0.48719     0.52796   0.00000  Uiso   1.00      0.00000
H29        H   0.3828     0.44127     0.52218   0.00000  Uiso   1.00      0.00000
H31        H   0.45491     0.3842     0.46678   0.00000  Uiso   1.00      0.00000
H32        H   0.49478     0.43079     0.47002   0.00000  Uiso   1.00      0.00000
H33        H   0.53568     0.52553     0.46941   0.00000  Uiso   1.00      0.00000
H34        H   0.59603     0.51501     0.47394   0.00000  Uiso   1.00      0.00000
loop_
_geom_bond_atom_site_label_1
_geom_bond_atom_site_label_2
_geom_bond_distance
_geom_bond_site_symmetry_2
_ccdc_geom_bond_type
X1    C2    1.391520722087888    .    A
X1    C19    1.3921513710800228    .    A
C2   H21   1.0869301357492995    .     S
C2    C3    1.3986721131130095    .    A
C3   H22   1.0873969652339448    .     S
C3    C4    1.4106840893694101    .    A
C4   N5   1.4534887134064765    .     S
C4    C18    1.407272255109154    .    A
N5   C12   1.4526037312357365    .     S
N5   C6   1.4529115595933606    .     S
C6    C7    1.4093910174256086    .    A
C6    C11    1.4071363260182037    .    A
C7   H23   1.0872598217537486    .     S
C7    C8    1.3975689750420224    .    A
C8    X9    1.3909382732529867    .    A
C8   H24   1.0869979208811744    .     S
X9    C10    1.3926042941194745    .    A
C10    C11    1.3992978810817929    .    A
C10   H26   1.0871630604467761    .     S
C11   H27   1.0868126609494366    .     S
C12    C17    1.407574935838231    .    A
C12    C13    1.4090762364045422    .    A
C13    C14    1.3978485182594058    .    A
C13   H28   1.0876577402841414    .     S
C14   H29   1.0865438785433357    .     S
C14    X15    1.391734514912956    .    A
X15    C16    1.3922292339984832    .    A
C16   H31   1.0866479834794724    .     S
C16    C17    1.398820131396456    .    A
C17   H32   1.0868927453985529    .     S
C18   H33   1.0846887111056325    .     S
C18    C19    1.39918301876488    .    A
C19   H34   1.0868545440858202    .     S
