data_L1
_audit_creation_date              2019-12-23
_audit_creation_method            'tobacco_3.0'
_symmetry_space_group_name_H-M    'P1'
_symmetry_Int_Tables_number       1
_symmetry_cell_setting            triclinic
loop_
_symmetry_equiv_pos_as_xyz
x,y,z
_cell_length_a                    40.0
_cell_length_b                    40.0
_cell_length_c                    40.0
_cell_angle_alpha                 90.0
_cell_angle_beta                 90.0
_cell_angle_gamma                 90.0
loop_
_atom_site_label
_atom_site_type_symbol
_atom_site_fract_x
_atom_site_fract_y
_atom_site_fract_z
_atom_site_U_iso_or_equiv
_atom_site_adp_type
_atom_site_occupancy
_atom_site_charge
X1        C   0.62166     0.46648     0.51397   0.00000  Uiso   1.00      0.00000
C2        C   0.59918     0.44409     0.52828   0.00000  Uiso   1.00      0.00000
C3        C   0.56501     0.45047     0.52667   0.00000  Uiso   1.00      0.00000
C4        C   0.55271     0.47917     0.51064   0.00000  Uiso   1.00      0.00000
C5        C   0.51668     0.48517     0.50716   0.00000  Uiso   1.00      0.00000
C6        C   0.49344     0.47336     0.53036   0.00000  Uiso   1.00      0.00000
C7        C   0.45959     0.47994     0.52596   0.00000  Uiso   1.00      0.00000
C8        C   0.43428     0.46979     0.5506   0.00000  Uiso   1.00      0.00000
C9        C   0.44219     0.46774     0.58481   0.00000  Uiso   1.00      0.00000
C10        C   0.41802     0.45913     0.60843   0.00000  Uiso   1.00      0.00000
X11        C   0.38543     0.45236     0.59833   0.00000  Uiso   1.00      0.00000
C12        C   0.37703     0.45406     0.56455   0.00000  Uiso   1.00      0.00000
C13        C   0.40122     0.46277     0.54097   0.00000  Uiso   1.00      0.00000
N14        N   0.44799     0.49719     0.49926   0.00000  Uiso   1.00      0.00000
C15        C   0.47028     0.50861     0.47655   0.00000  Uiso   1.00      0.00000
C16        C   0.45649     0.52729     0.4482   0.00000  Uiso   1.00      0.00000
C17        C   0.42736     0.54656     0.45153   0.00000  Uiso   1.00      0.00000
C18        C   0.41399     0.56385     0.42444   0.00000  Uiso   1.00      0.00000
X19        C   0.42964     0.56225     0.39341   0.00000  Uiso   1.00      0.00000
C20        C   0.4587     0.54349     0.38948   0.00000  Uiso   1.00      0.00000
C21        C   0.47208     0.52636     0.41664   0.00000  Uiso   1.00      0.00000
C22        C   0.50426     0.50304     0.47995   0.00000  Uiso   1.00      0.00000
C23        C   0.57611     0.50162     0.49695   0.00000  Uiso   1.00      0.00000
C24        C   0.61025     0.49522     0.4984   0.00000  Uiso   1.00      0.00000
H26        H   0.60823     0.42147     0.54045   0.00000  Uiso   1.00      0.00000
H27        H   0.54791     0.43235     0.53749   0.00000  Uiso   1.00      0.00000
H28        H   0.50172     0.45936     0.55202   0.00000  Uiso   1.00      0.00000
H29        H   0.46724     0.47352     0.59349   0.00000  Uiso   1.00      0.00000
H30        H   0.42463     0.45812     0.63477   0.00000  Uiso   1.00      0.00000
H32        H   0.35158     0.44888     0.55658   0.00000  Uiso   1.00      0.00000
H33        H   0.39422     0.46435     0.51468   0.00000  Uiso   1.00      0.00000
H34        H   0.41495     0.54811     0.47578   0.00000  Uiso   1.00      0.00000
H35        H   0.39135     0.57853     0.42758   0.00000  Uiso   1.00      0.00000
H37        H   0.47088     0.5422     0.36523   0.00000  Uiso   1.00      0.00000
H38        H   0.49469     0.51174     0.41296   0.00000  Uiso   1.00      0.00000
H39        H   0.52127     0.51285     0.46121   0.00000  Uiso   1.00      0.00000
H40        H   0.56784     0.52445     0.48473   0.00000  Uiso   1.00      0.00000
H41        H   0.62785     0.51271     0.48727   0.00000  Uiso   1.00      0.00000
loop_
_geom_bond_atom_site_label_1
_geom_bond_atom_site_label_2
_geom_bond_distance
_geom_bond_site_symmetry_2
_ccdc_geom_bond_type
X1    C24    1.3848324664016247    .    A
X1    C2    1.3922290616130628    .    A
C2    C3    1.391911146589463    .    A
C2   H26   1.089349016614969    .     S
C3    C4    1.4039606262285256    .    A
C3   H27   1.086511334501389    .     S
C4    C23    1.4079651132041573    .    A
C4   C5   1.4676627950588668    .     S
C5    C22    1.393687138492711    .    A
C5    C6    1.395887502630496    .    A
C6    C7    1.3905273244348697    .    A
C6   H28   1.0834862251085593    .     S
C7    N14    1.3535213334114875    .    A
C7   C8   1.4701010577507931    .     S
C8    C13    1.4056918012139106    .    A
C8    C9    1.4068942817425913    .    A
C9    C10    1.3949769317089082    .    A
C9   H29   1.0853595164736873    .     S
C10   H30   1.0870199998160064    .     S
C10    X11    1.3913739971697068    .    A
X11    C12    1.394009124790794    .    A
C12    C13    1.3954420661568179    .    A
C12   H32   1.0866872963276986    .     S
C13   H33   1.090071924232519    .     S
N14    C15    1.3523340415740492    .    A
C15   C16   1.4657852503010065    .     S
C15    C22    1.384037745150039    .    A
C16    C17    1.40341224164534    .    A
C16    C21    1.4085150194442366    .    A
C17   H34   1.0914013743806625    .     S
C17    C18    1.392304047254048    .    A
C18   H35   1.086595858633742    .     S
C18    X19    1.3915995975854547    .    A
X19    C20    1.392474689177507    .    A
C20   H37   1.0867043756238397    .     S
C20    C21    1.3914751309312017    .    A
C21   H38   1.087013449778799    .     S
C22   H39   1.0857357321190095    .     S
C23   H40   1.0873308236226888    .     S
C23    C24    1.3905982022137062    .    A
C24   H41   1.0877771830664638    .     S
