data_L1
_audit_creation_date              2019-12-23
_audit_creation_method            'tobacco_3.0'
_symmetry_space_group_name_H-M    'P1'
_symmetry_Int_Tables_number       1
_symmetry_cell_setting            triclinic
loop_
_symmetry_equiv_pos_as_xyz
x,y,z
_cell_length_a                    40.0
_cell_length_b                    40.0
_cell_length_c                    40.0
_cell_angle_alpha                 90.0
_cell_angle_beta                 90.0
_cell_angle_gamma                 90.0
loop_
_atom_site_label
_atom_site_type_symbol
_atom_site_fract_x
_atom_site_fract_y
_atom_site_fract_z
_atom_site_U_iso_or_equiv
_atom_site_adp_type
_atom_site_occupancy
_atom_site_charge
X1        C   0.62128     0.45131     0.50295   0.00000  Uiso   1.00      0.00000
C2        C   0.59872     0.42774     0.51497   0.00000  Uiso   1.00      0.00000
C3        C   0.56425     0.43359     0.51284   0.00000  Uiso   1.00      0.00000
C4        C   0.55147     0.4633     0.49904   0.00000  Uiso   1.00      0.00000
C5        C   0.51495     0.47016     0.49709   0.00000  Uiso   1.00      0.00000
C6        C   0.49229     0.45757     0.52095   0.00000  Uiso   1.00      0.00000
C7        C   0.45801     0.46565     0.52074   0.00000  Uiso   1.00      0.00000
C8        C   0.43496     0.45496     0.54787   0.00000  Uiso   1.00      0.00000
C9        C   0.44605     0.45188     0.58106   0.00000  Uiso   1.00      0.00000
C10        C   0.42398     0.44437     0.60713   0.00000  Uiso   1.00      0.00000
X11        C   0.39012     0.44     0.60061   0.00000  Uiso   1.00      0.00000
C12        C   0.37845     0.44244     0.56798   0.00000  Uiso   1.00      0.00000
C13        C   0.40069     0.44946     0.54192   0.00000  Uiso   1.00      0.00000
C14        C   0.44662     0.48664     0.49495   0.00000  Uiso   1.00      0.00000
C15        C   0.46795     0.50032     0.47067   0.00000  Uiso   1.00      0.00000
C16        C   0.45573     0.5254     0.44623   0.00000  Uiso   1.00      0.00000
C17        C   0.43064     0.54849     0.45512   0.00000  Uiso   1.00      0.00000
C18        C   0.41978     0.57326     0.43301   0.00000  Uiso   1.00      0.00000
X19        C   0.43407     0.5758     0.40144   0.00000  Uiso   1.00      0.00000
C20        C   0.45889     0.55341     0.39191   0.00000  Uiso   1.00      0.00000
C21        C   0.46946     0.52836     0.41401   0.00000  Uiso   1.00      0.00000
C22        C   0.50179     0.49105     0.47199   0.00000  Uiso   1.00      0.00000
C23        C   0.57505     0.48684     0.48751   0.00000  Uiso   1.00      0.00000
C24        C   0.60947     0.48089     0.48914   0.00000  Uiso   1.00      0.00000
H26        H   0.60786     0.40465     0.526   0.00000  Uiso   1.00      0.00000
H27        H   0.54754     0.41425     0.52209   0.00000  Uiso   1.00      0.00000
H28        H   0.50173     0.44166     0.54087   0.00000  Uiso   1.00      0.00000
H29        H   0.47213     0.45623     0.5874   0.00000  Uiso   1.00      0.00000
H30        H   0.43331     0.44248     0.63258   0.00000  Uiso   1.00      0.00000
H32        H   0.35199     0.43921     0.56269   0.00000  Uiso   1.00      0.00000
H33        H   0.39059     0.45095     0.5167   0.00000  Uiso   1.00      0.00000
H34        H   0.42031     0.49352     0.49437   0.00000  Uiso   1.00      0.00000
H35        H   0.41946     0.54794     0.47993   0.00000  Uiso   1.00      0.00000
H36        H   0.40036     0.59064     0.44071   0.00000  Uiso   1.00      0.00000
H38        H   0.47038     0.55552     0.36742   0.00000  Uiso   1.00      0.00000
H39        H   0.48873     0.51116     0.40554   0.00000  Uiso   1.00      0.00000
H40        H   0.51866     0.50126     0.45329   0.00000  Uiso   1.00      0.00000
H41        H   0.56698     0.51071     0.47728   0.00000  Uiso   1.00      0.00000
H42        H   0.62683     0.49951     0.4797   0.00000  Uiso   1.00      0.00000
loop_
_geom_bond_atom_site_label_1
_geom_bond_atom_site_label_2
_geom_bond_distance
_geom_bond_site_symmetry_2
_ccdc_geom_bond_type
X1    C24    1.3886215323118147    .    A
X1    C2    1.390814955340931    .    A
C2    C3    1.4011083041649544    .    A
C2   H26   1.0869028291434324    .     S
C3    C4    1.4065290611999475    .    A
C3   H27   1.0872513600819236    .     S
C4    C23    1.4102986350415296    .    A
C4   C5   1.4883937651038512    .     S
C5    C22    1.4083111587997865    .    A
C5    C6    1.4092740258728989    .    A
C6    C7    1.4088002839295592    .    A
C6   H28   1.0874175646916868    .     S
C7    C14    1.4059509522028117    .    A
C7   C8   1.4868035512467677    .     S
C8    C13    1.4085938520382681    .    A
C8    C9    1.405162253976386    .    A
C9    C10    1.398930963271593    .    A
C9   H29   1.0875914674178018    .     S
C10   H30   1.0868843544738358    .     S
C10    X11    1.3903132884353773    .    A
X11    C12    1.3895952792090236    .    A
C12    C13    1.398869028894414    .    A
C12   H32   1.0870500264477254    .     S
C13   H33   1.0883223787095369    .     S
C14   H34   1.0880344847476164    .     S
C14    C15    1.4037832881182188    .    A
C15   C16   1.4835893771525874    .     S
C15    C22    1.4044619752773633    .    A
C16    C17    1.409503912729589    .    A
C16    C21    1.4059319471439515    .    A
C17   H35   1.0887284326222015    .     S
C17    C18    1.3973372391802878    .    A
C18   H36   1.0870074884746685    .     S
C18    X19    1.3898607700053975    .    A
X19    C20    1.3903469495057728    .    A
C20    C21    1.4015062754051408    .    A
C20   H38   1.0853440376212486    .     S
C21   H39   1.0873187573108472    .     S
C22   H40   1.0870370738847897    .     S
C23   H41   1.0877902003603417    .     S
C23    C24    1.398739890043893    .    A
C24   H42   1.086047954742331    .     S
